LAMMPS (2 Apr 2025)
# Define Variables
variable temp equal 300
variable rdf_bins equal 50
variable sim_run equal 1

# Define the Units
units real
atom_style atomic

# Create a Simulation Box
read_data Ar.data
Reading data file ...
  orthogonal box = (0 0 0) to (42.08 42.08 42.08)
  reading atoms ...
  2048 atoms

# Assign the Group to Argon and Assign it's mass
group Ar type 1
2048 atoms in group Ar
mass 1 39.948

# Define the Potential of the Simulation
pair_style lj/cut 10.0
pair_coeff 1 1 1.0 1.0

# Set the initial velocity
velocity all create 300 54343

# Define the Thermodynamics Output
thermo 100
thermo_style custom step temp press vol etotal

# Compute the RDF
compute RDF all rdf 50

# Run the Simulation
fix integrate1 all nvt temp 300 300 5.0
fix 1 all ave/time 100 10 1000 c_RDF[*] file RDF_Pre_Sim1.data mode vector
timestep 0.005

# Run the Simulation
run 20000
Generated 0 of 0 mixed pair_coeff terms from geometric mixing rule
Step          Temp          Press          Volume         TotEng
0   300            1082.6031      74512.167      1808.56
Averages over the last 101 of 201 rows, steps 10000 to 20000:
Temp Press Volume TotEng
300.343 1080.87 74512.2 1809.01
Loop time of 122.108 on 1 procs for 20000 steps with 2048 atoms

unfix integrate1

# Output the RDF Data to the Dump Folder
fix integrate2 all nvt temp 300 300 5.0
fix 1 all ave/time 100 10 1000 c_RDF[*] file RDF_Sim1.data mode vector

# Dump the files for the positions of the Atoms every 100 Frames
dump            myDump1 all custom 100 Dumpfiles/_*.dump id type element x y z vx vy vz fx fy fz
dump_modify 	myDump1 element Ar

# Run the Simulation
run 100000
Generated 0 of 0 mixed pair_coeff terms from geometric mixing rule
Step          Temp          Press          Volume         TotEng
20000   305.65937      1098.337       74512.167      1840.1237
Averages over the last 501 of 1001 rows, steps 70000 to 120000:
Temp Press Volume TotEng
299.743 994.801 74512.2 1563.81
Loop time of 613.781 on 1 procs for 100000 steps with 2048 atoms

unfix integrate2
