LAMMPS (2 Apr 2025)
# ------------------------ INITIALIZATION ----------------------
units           metal
boundary        p p p
atom_style	atomic

# ---------- Read_data     ---------------------
read_data 	structure.lmp
Reading data file ...
  triclinic box = (0 0 0) to (11.911177 10.315382 9.7254353) with tilt (-5.9555885 -5.9555885 3.4384606)
  reading atoms ...
  112 atoms

# ----------------------- VARIABLES ---------------------
variable        dt equal 0.001

# --------- Group Atoms -----------
group 		Li type 1
16 atoms in group Li
group 		Mn type 2
32 atoms in group Mn
group 		O  type 3
64 atoms in group O

# ------------------------ FORCE FIELDS -----------------------
pair_style	meam
pair_coeff * * library.meam Li Mn O LiMnO.meam Li Mn O

# ---------- EQUILIBRATION ------------
# --------- Customize Output ----------
thermo 		100
thermo_style    custom step temp pe ke etotal press lx ly lz
# ---------- Equilibration step  ------------
timestep        0.001
velocity        all create 670.0 123

fix             integrate1 all npt temp 670.0 670.0 10.0 aniso 0.0 0.0 10.0

run             50000
Step          Temp          PotEng         KinEng         TotEng         Press            Lx             Ly             Lz
0   670           -213.33463      9.613077      -203.72155     -3618.9931      11.911177      10.315382      9.7254353
Averages over the last 251 of 501 rows, steps 25000 to 50000:
Temp PotEng KinEng TotEng Press Lx Ly Lz
687.839 -206.209 9.86903 -196.34 -115.226 11.7851 10.1921 9.67192
Loop time of 302.885 on 1 procs for 50000 steps with 112 atoms

unfix           integrate1

# ---------- PRODUCTION  ------------
# --------- Define Compute ------------
compute         RDF all rdf 20 1 1 1 2 1 3
# -------- Customize Output  ---------
thermo          100
thermo_style    custom step temp pe ke etotal vol

dump            myDump1 all custom 100 Dumpfiles/_*.dump id type element x y z vx vy vz fx fy fz
dump_modify     myDump1 element Li Mn O
# ---------- Production step  ------------
fix             integrate2 all nvt temp 670.0 670.0 10.0
fix 		1 all ave/time 10 10 100 c_RDF[*] file RDF.data mode vector

run             50000
Step          Temp          PotEng         KinEng         TotEng         Volume
50000   738.70038     -206.35301      10.598782     -195.75423      1163.0502
Averages over the last 251 of 501 rows, steps 75000 to 100000:
Temp PotEng KinEng TotEng Volume
649.333 -207.16 9.31655 -197.844 1163.05
Loop time of 289.717 on 1 procs for 50000 steps with 112 atoms

unfix           integrate2
