LAMMPS (2 Apr 2025)
# LAMMPS input script for argon gas

units           lj               # Use Lennard-Jones units
atom_style      atomic           # Atomic style for molecular dynamics

# Create simulation box
lattice         fcc 0.8442      # FCC lattice for argon
Lattice spacing in x,y,z = 1.6795962 1.6795962 1.6795962
region          box block 0 10 0 10 0 10  # Define a cubic box
create_box      1 box           # Create simulation box for 1 type of atom
Created orthogonal box = (0 0 0) to (16.795962 16.795962 16.795962)
create_atoms    1 box           # Create argon atoms in the box
Created 4000 atoms

mass 1 1.0

group           Ar type 1
4000 atoms in group Ar
# Define potential
pair_style      lj/cut 2.5      # Lennard-Jones potential with cutoff
pair_coeff      1 1 1.0 1.0     # Argon parameters (epsilon, sigma)

# Set initial conditions
velocity        all create 1.5 12345   # Initialize velocities at 1.5 temperature

# ------------------ Dynamics ------------------
fix             integrator all nve      # integrate equations of motion

# Define settings for output
thermo          100             # Print thermodynamic data every 100 timesteps
thermo_style    custom step temp press vol etotal # Custom thermo output

# Compute RDF
compute         myRDF all rdf 100  # Compute RDF with 100 bins

dump            myDump1 all custom 100 Dumpfiles/_*.dump id type element x y z vx vy vz fx fy fz
dump_modify     myDump1 element Ar
# Output RDF data
fix             1 all ave/time 100 10 1000 c_myRDF[*] file rdf.dat mode vector

# Run the simulation
timestep        0.005            # Set the timestep size
run             10000            # Run for 10,000 timesteps
Generated 0 of 0 mixed pair_coeff terms from geometric mixing rule
Step          Temp          Press          Volume         TotEng
0   1.5           -4.9693338      4738.2137     -4.5239306
Averages over the last 51 of 101 rows, steps 5000 to 10000:
Temp Press Volume TotEng
0.730972 0.970194 4738.21 -4.53024
Loop time of 71.6604 on 1 procs for 10000 steps with 4000 atoms

# Output RDF data
#fix             1 all ave/time 100 10 1000 c_myRDF[*] file rdf.dat mode vector
