# --------------------- INITIALIZATION ---------------------
units           metal
atom_style      atomic
boundary        p p p
atom_modify     map array

# --------------------- READ STRUCTURE ---------------------
read_data       structure.lmp
Reading data file ...
  triclinic box = (0 0 0) to (23.822354 20.630764 19.450871) with tilt (11.911177 11.911177 6.8769212)
  reading atoms ...
  896 atoms

# --------------------- MASSES -----------------------------
mass 1 6.941       # Li
mass 2 54.938049   # Mn
mass 3 15.9994     # O

# --------------------- GROUPS -----------------------------
group Li type 1
128 atoms in group Li
group Mn type 2
256 atoms in group Mn
group O  type 3
512 atoms in group O

# --------------------- FORCE FIELD ------------------------
pair_style      meam
pair_coeff      * * library.meam Li Mn O LiMnO.meam Li Mn O

# --------------------- ENERGY MINIMIZATION ----------------
minimize        1.0e-4 1.0e-7 1000 10000
Step          Temp          E_pair         E_mol          TotEng         Press
0   0             -1706.677       0             -1706.677      -12211.749
Loop time of 0.255377 on 1 procs for 2 steps with 896 atoms

Minimization stats:
  Stopping criterion = energy tolerance
  Energy initial, next-to-last, final =
  Force two-norm initial, final = 17.964567 0.042484055
  Force max component initial, final = 0.79393726 0.0018780585
  Final line search alpha, max atom move = 1 0.0018780585
  Iterations, force evaluations = 2 4

# --------------------- VELOCITY INIT ---------------------
velocity        all create 1400 12345 mom yes rot yes dist gaussian
timestep        0.001

# ==========================================================
# STAGE 1: NPT Equilibration (Relax structure at target T & P=0)
# ==========================================================
fix eq all npt temp 1400 1400 10.0 iso 0.0 0.0 1000.0

thermo          100
thermo_style    custom step temp pe ke etotal press vol

run             20000
Step          Temp          PotEng         KinEng         TotEng         Press          Volume
2   1400          -1720.4719      161.96296     -1558.509      -12643.411      9559.5846
Averages over the last 101 of 202 rows, steps 10100 to 20002:
Temp PotEng KinEng TotEng Press Volume
850.554 -1627.02 98.3988 -1528.62 -8394.9 9559.56
Loop time of 840.164 on 1 procs for 20000 steps with 896 atoms

unfix           eq

# ==========================================================
# STAGE 2: NVT Production for MSD / Diffusion
# ==========================================================

# ---- Compute MSD ----
compute MSDLi Li msd
compute MSDMn Mn msd
compute MSDO  O  msd
compute eng all pe/atom
compute 1 all property/atom vx vy vz fx fy fz

# ---- Dump trajectory ----
dump myDump1 all custom 100 Dumpfiles/T1400/LiMnO_T1400_*.dump id type element x y z vx vy vz fx fy fz c_eng
dump_modify myDump1 element Li Mn O

# ---- NVT Dynamics ----
fix prod all nvt temp 1400 1400 10.0

# ---- Track MSD slopes ----
fix v_Li Li vector 1 c_MSDLi[4]
fix v_Mn Mn vector 1 c_MSDMn[4]
fix v_O  O  vector 1 c_MSDO[4]

variable Li_slope equal slope(f_v_Li)/(6*0.001)
variable Mn_slope equal slope(f_v_Mn)/(6*0.001)
variable O_slope  equal slope(f_v_O)/(6*0.001)

thermo_style custom step temp pe ke etotal c_MSDLi[4] c_MSDMn[4] c_MSDO[4] v_Li_slope v_Mn_slope v_O_slope

run 50000
Step          Temp          PotEng         KinEng         TotEng       c_MSDLi[4]     c_MSDMn[4]     c_MSDO[4]      v_Li_slope     v_Mn_slope     v_O_slope
20002   938.32822     -1623.6601      108.55316     -1515.1069      1.5839233e-29  5.7727824e-30  1.3609391e-29  1.6666667e+22  1.6666667e+22  1.6666667e+22
Averages over the last 179 of 358 rows, steps 37900 to 55700:
Temp PotEng KinEng TotEng c_MSDLi[4] c_MSDMn[4] c_MSDO[4] v_Li_slope v_Mn_slope v_O_slope
1183.41 -1578.18 136.907 -1441.27 3.47044 0.521469 0.458147 0.0150462 0.000904754 0.000632725
ERROR: Lost atoms: original 896 current 878
For more information see https://docs.lammps.org/err0008 (src/thermo.cpp:518)
