LAMMPS (2 Apr 2025)
# Define Variables
variable temp equal 1.5
variable rdf_bins equal 50
variable sim_run equal 2
variable cut_off equal 2.5
variable dt equal 0.005

# Define the Units
units lj
atom_style atomic

# Create a Simulation Box
read_data Kr.data
Reading data file ...
  orthogonal box = (0 0 0) to (45.6 45.6 45.6)
  reading atoms ...
  2048 atoms

# Assign the Group to Krypton and Assign it's mass
group Kr type 1
2048 atoms in group Kr
mass 1 1.0

# Define the Potential of the Simulation
pair_style lj/cut 2.5
pair_coeff 1 1 1.0 1.0

# Set the initial velocity
velocity all create 1.5 54343

# Compute the RDF and MSD
compute RDF all rdf 50
compute MSD all msd

# Run the Simulation
fix integrate1 all npt temp 1.5 1.5 1 iso 5 5 1
fix 1 all ave/time 100 10 1000 c_RDF[*] file RDF_Pre_Sim2.data mode vector
fix m_MSD Kr vector 1 c_MSD[4]

variable MSD_Slope equal slope(f_m_MSD)/6/(1*0.005)

# Define the Thermodynamics Output
thermo 100
thermo_style custom step temp press vol etotal c_MSD[4] v_MSD_Slope
timestep 0.005

# Run the Simulation
run 20000
Generated 0 of 0 mixed pair_coeff terms from geometric mixing rule
Step          Temp          Press          Volume         TotEng        c_MSD[4]     v_MSD_Slope
0   1.5            0.032382813    94818.816      2.2489014      0              3.3333333e+21
Averages over the last 21 of 41 rows, steps 2000 to 4000:
Temp Press Volume TotEng c_MSD[4] v_MSD_Slope
1.47981 5.0076 2436.67 -2.65036 228.626 1.71976
      5600   1.509036       5.1230839      2449.4689     -2..5681113      235.51514      0.58277765
Loop time of 117.729 on 1 procs for 20000 steps with 2048 atoms

unfix integrate1
unfix m_MSD

# Output the RDF Data to the Dump Folder
fix integrate2 all nve
fix 1 all ave/time 100 10 1000 c_RDF[*] file RDF_Sim2.data mode vector
fix m_MSD Kr vector 1 c_MSD[4]

variable MSD_Slope equal slope(f_m_MSD)/6/(1*0.005)

# Dump the files for the positions of the Atoms every 100 Frames
dump            myDump1 all custom 100 Dumpfiles/_*.dump id type element x y z vx vy vz fx fy fz
dump_modify 	myDump1 element Kr

# Run the Simulation
run 80000
Generated 0 of 0 mixed pair_coeff terms from geometric mixing rule
Step          Temp          Press          Volume         TotEng        c_MSD[4]     v_MSD_Slope
20000   1.4895118      4.985624       2442.9079     -2.6193184      331.45834      3.3333333e+21
Averages over the last 401 of 801 rows, steps 60000 to 100000:
Temp Press Volume TotEng c_MSD[4] v_MSD_Slope
1.49169 4.96823 2442.91 -2.61887 488.876 0.0872316
Loop time of 492.973 on 1 procs for 80000 steps with 2048 atoms

unfix integrate2
unfix m_MSD
