LAMMPS (2 Apr 2025)
# Define Variables
variable temp equal 1.5
variable rdf_bins equal 50
variable sim_run equal 1

# Define the Units
units lj
atom_style atomic

# Create a Simulation Box
read_data Ar.data
Reading data file ...
  orthogonal box = (0 0 0) to (42.08 42.08 42.08)
  reading atoms ...
  2048 atoms

# Assign the Group to Argon and Assign it's mass
group Ar type 1
2048 atoms in group Ar
mass 1 1.0

# Define the Potential of the Simulation
pair_style lj/cut 2.5
pair_coeff 1 1 1.0 1.0

# Set the initial velocity
velocity all create 1.5 54343

# Define the Thermodynamics Output
thermo 100
thermo_style custom step temp press vol etotal
timestep 0.005

# Compute the RDF
compute RDF all rdf 50

# Run the Simulation
fix integrate1 all npt temp 1.5 1.5 1 iso 5 5 1
fix 1 all ave/time 100 10 1000 c_RDF[*] file RDF_Pre_Sim1.data mode vector

# Run the Simulation
run 20000
Generated 0 of 0 mixed pair_coeff terms from geometric mixing rule
Step          Temp          Press          Volume         TotEng
0   1.5            0.041208035    74512.167      2.2489014
Averages over the last 101 of 201 rows, steps 10000 to 20000:
Temp Press Volume TotEng
1.49744 4.99579 2442.37 -2.60613
Loop time of 76.9927 on 1 procs for 20000 steps with 2048 atoms

unfix integrate1

# Output the RDF Data to the Dump Folder
fix integrate2 all nve
fix 1 all ave/time 100 10 1000 c_RDF[*] file RDF_Sim1.data mode vector

# Dump the files for the positions of the Atoms every 100 Frames
dump            myDump1 all custom 100 Dumpfiles/_*.dump id type element x y z vx vy vz fx fy fz
dump_modify 	myDump1 element Ar

# Run the Simulation
run 80000
Generated 0 of 0 mixed pair_coeff terms from geometric mixing rule
Step          Temp          Press          Volume         TotEng
20000   1.4636102      5.044266       2448.1381     -2.6126511
Averages over the last 401 of 801 rows, steps 60000 to 100000:
Temp Press Volume TotEng
1.49105 4.91582 2448.14 -2.61248
Loop time of 318.122 on 1 procs for 80000 steps with 2048 atoms

unfix integrate2
